  
       XFOIL         Version 6.99
  
 Calculated polar for: GA                                              
  
 1 1 Reynolds number fixed          Mach number fixed         
  
 xtrf =   1.000 (top)        1.000 (bottom)  
 Mach =   0.000     Re =     0.150 e 6     Ncrit =   9.000
  
   alpha    CL        CD       CDp       CM     Top_Xtr  Bot_Xtr
  ------ -------- --------- --------- -------- -------- --------
   0.000   1.0714   0.01699   0.01040  -0.2408   0.7374   0.6780
   0.100   1.0860   0.01695   0.01028  -0.2413   0.7351   0.6919
   0.200   1.0947   0.01700   0.01034  -0.2407   0.7316   0.7018
   0.300   1.1012   0.01712   0.01046  -0.2398   0.7272   0.7120
   0.400   1.1110   0.01714   0.01047  -0.2394   0.7236   0.7228
   0.500   1.1226   0.01710   0.01040  -0.2393   0.7205   0.7333
   0.600   1.1363   0.01707   0.01030  -0.2397   0.7178   0.7455
   0.700   1.1496   0.01700   0.01019  -0.2399   0.7155   0.7558
   0.800   1.1561   0.01712   0.01032  -0.2391   0.7113   0.7657
   0.900   1.1635   0.01719   0.01040  -0.2383   0.7073   0.7755
   1.000   1.1736   0.01719   0.01039  -0.2380   0.7038   0.7859
   1.100   1.1857   0.01716   0.01031  -0.2381   0.7008   0.7977
   1.200   1.1978   0.01710   0.01020  -0.2381   0.6982   0.8084
   1.300   1.2106   0.01707   0.01011  -0.2384   0.6956   0.8203
   1.400   1.2149   0.01718   0.01028  -0.2371   0.6912   0.8316
   1.500   1.2221   0.01720   0.01031  -0.2363   0.6874   0.8436
   1.600   1.2312   0.01717   0.01027  -0.2358   0.6841   0.8575
   1.700   1.2410   0.01709   0.01017  -0.2354   0.6812   0.8740
   1.800   1.2505   0.01698   0.01003  -0.2349   0.6787   0.8966
   1.900   1.2586   0.01688   0.00995  -0.2342   0.6758   1.0000
   2.000   1.2680   0.01707   0.01014  -0.2342   0.6715   1.0000
   2.100   1.2802   0.01718   0.01021  -0.2346   0.6676   1.0000
   2.200   1.2941   0.01726   0.01023  -0.2353   0.6643   1.0000
   2.300   1.3090   0.01732   0.01020  -0.2361   0.6614   1.0000
   2.400   1.3249   0.01738   0.01016  -0.2371   0.6588   1.0000
   2.500   1.3344   0.01755   0.01032  -0.2370   0.6551   1.0000
   2.600   1.3434   0.01771   0.01048  -0.2367   0.6511   1.0000
   2.700   1.3545   0.01783   0.01056  -0.2368   0.6476   1.0000
   2.800   1.3671   0.01790   0.01058  -0.2371   0.6444   1.0000
   2.900   1.3808   0.01797   0.01059  -0.2377   0.6416   1.0000
   3.000   1.3960   0.01805   0.01057  -0.2385   0.6390   1.0000
   3.100   1.4021   0.01825   0.01081  -0.2377   0.6350   1.0000
   3.200   1.4108   0.01840   0.01096  -0.2373   0.6312   1.0000
   3.300   1.4215   0.01851   0.01104  -0.2373   0.6277   1.0000
   3.400   1.4336   0.01859   0.01107  -0.2375   0.6247   1.0000
   3.500   1.4469   0.01867   0.01108  -0.2380   0.6220   1.0000
   3.600   1.4601   0.01879   0.01113  -0.2384   0.6192   1.0000
   3.700   1.4659   0.01899   0.01137  -0.2375   0.6153   1.0000
   3.800   1.4744   0.01914   0.01152  -0.2371   0.6116   1.0000
   3.900   1.4848   0.01925   0.01161  -0.2370   0.6082   1.0000
   4.000   1.4966   0.01934   0.01168  -0.2372   0.6052   1.0000
   4.100   1.5097   0.01943   0.01171  -0.2375   0.6025   1.0000
   4.200   1.5214   0.01957   0.01181  -0.2377   0.5997   1.0000
   4.300   1.5272   0.01977   0.01206  -0.2368   0.5959   1.0000
   4.400   1.5355   0.01993   0.01223  -0.2364   0.5923   1.0000
   4.500   1.5456   0.02005   0.01234  -0.2362   0.5890   1.0000
   4.600   1.5571   0.02015   0.01239  -0.2363   0.5860   1.0000
   4.700   1.5699   0.02024   0.01243  -0.2367   0.5833   1.0000
   4.800   1.5811   0.02040   0.01255  -0.2368   0.5804   1.0000
   4.900   1.5865   0.02061   0.01282  -0.2358   0.5767   1.0000
   5.000   1.5944   0.02078   0.01303  -0.2353   0.5731   1.0000
   5.100   1.6041   0.02091   0.01315  -0.2351   0.5699   1.0000
   5.200   1.6153   0.02101   0.01322  -0.2351   0.5669   1.0000
   5.300   1.6279   0.02112   0.01327  -0.2354   0.5642   1.0000
   5.400   1.6393   0.02128   0.01341  -0.2355   0.5614   1.0000
   5.500   1.6440   0.02150   0.01370  -0.2345   0.5577   1.0000
   5.600   1.6513   0.02168   0.01391  -0.2338   0.5542   1.0000
   5.700   1.6606   0.02182   0.01404  -0.2335   0.5509   1.0000
   5.800   1.6713   0.02194   0.01415  -0.2335   0.5480   1.0000
   5.900   1.6836   0.02205   0.01422  -0.2338   0.5453   1.0000
   6.000   1.6959   0.02222   0.01434  -0.2341   0.5425   1.0000
   6.100   1.6997   0.02246   0.01467  -0.2328   0.5390   1.0000
   6.200   1.7062   0.02265   0.01490  -0.2321   0.5355   1.0000
   6.300   1.7148   0.02281   0.01507  -0.2317   0.5322   1.0000
   6.400   1.7250   0.02293   0.01518  -0.2316   0.5291   1.0000
   6.500   1.7369   0.02305   0.01525  -0.2317   0.5264   1.0000
   6.600   1.7504   0.02321   0.01537  -0.2323   0.5237   1.0000
   6.700   1.7532   0.02347   0.01572  -0.2308   0.5202   1.0000
   6.800   1.7588   0.02369   0.01599  -0.2299   0.5168   1.0000
   6.900   1.7666   0.02386   0.01619  -0.2294   0.5135   1.0000
   7.000   1.7762   0.02400   0.01632  -0.2292   0.5104   1.0000
   7.100   1.7876   0.02412   0.01641  -0.2293   0.5076   1.0000
   7.200   1.8022   0.02427   0.01649  -0.2300   0.5049   1.0000
   7.300   1.8042   0.02455   0.01688  -0.2285   0.5015   1.0000
   7.400   1.8087   0.02479   0.01718  -0.2274   0.4981   1.0000
   7.500   1.8155   0.02499   0.01741  -0.2267   0.4948   1.0000
   7.600   1.8243   0.02514   0.01757  -0.2263   0.4917   1.0000
   7.700   1.8351   0.02528   0.01768  -0.2263   0.4888   1.0000
   7.800   1.8494   0.02542   0.01776  -0.2270   0.4860   1.0000
   7.900   1.8523   0.02571   0.01813  -0.2256   0.4828   1.0000
   8.000   1.8553   0.02598   0.01848  -0.2243   0.4794   1.0000
   8.100   1.8609   0.02620   0.01875  -0.2234   0.4761   1.0000
   8.200   1.8688   0.02637   0.01893  -0.2229   0.4730   1.0000
   8.300   1.8789   0.02652   0.01906  -0.2227   0.4700   1.0000
   8.400   1.8927   0.02667   0.01915  -0.2233   0.4672   1.0000
   8.500   1.8967   0.02696   0.01951  -0.2222   0.4641   1.0000
   8.600   1.8979   0.02726   0.01990  -0.2205   0.4607   1.0000
   8.700   1.9020   0.02751   0.02021  -0.2194   0.4574   1.0000
   8.800   1.9084   0.02771   0.02043  -0.2186   0.4543   1.0000
   8.900   1.9174   0.02787   0.02058  -0.2183   0.4513   1.0000
   9.000   1.9309   0.02802   0.02068  -0.2189   0.4483   1.0000
   9.100   1.9358   0.02831   0.02101  -0.2179   0.4453   1.0000
   9.200   1.9340   0.02864   0.02144  -0.2157   0.4422   1.0000
   9.300   1.9355   0.02893   0.02179  -0.2141   0.4390   1.0000
   9.400   1.9399   0.02917   0.02205  -0.2130   0.4358   1.0000
   9.500   1.9472   0.02935   0.02225  -0.2124   0.4328   1.0000
   9.600   1.9592   0.02950   0.02236  -0.2127   0.4297   1.0000
   9.700   1.9672   0.02978   0.02264  -0.2123   0.4266   1.0000
   9.800   1.9635   0.03018   0.02315  -0.2099   0.4236   1.0000
   9.900   1.9634   0.03054   0.02358  -0.2081   0.4204   1.0000
  10.000   1.9664   0.03084   0.02392  -0.2068   0.4172   1.0000
