  
       XFOIL         Version 6.99
  
 Calculated polar for: GA                                              
  
 1 1 Reynolds number fixed          Mach number fixed         
  
 xtrf =   1.000 (top)        1.000 (bottom)  
 Mach =   0.000     Re =     0.150 e 6     Ncrit =   9.000
  
   alpha    CL        CD       CDp       CM     Top_Xtr  Bot_Xtr
  ------ -------- --------- --------- -------- -------- --------
  -5.000   0.2042   0.02875   0.02242  -0.1963   0.8717   0.0874
  -4.750   0.2573   0.02699   0.02045  -0.2015   0.8699   0.0937
  -4.500   0.3104   0.02546   0.01872  -0.2065   0.8684   0.1018
  -4.000   0.3866   0.02346   0.01652  -0.2104   0.8541   0.1185
  -3.750   0.4357   0.02226   0.01529  -0.2141   0.8520   0.1305
  -3.500   0.4867   0.02112   0.01412  -0.2180   0.8504   0.1451
  -3.000   0.5649   0.01967   0.01258  -0.2216   0.8355   0.1768
  -2.750   0.6186   0.01869   0.01166  -0.2261   0.8326   0.1982
  -2.250   0.7039   0.01760   0.01051  -0.2310   0.8157   0.2421
  -2.000   0.7450   0.01715   0.01006  -0.2331   0.8059   0.2640
  -1.750   0.7886   0.01672   0.00963  -0.2356   0.7960   0.2864
  -1.500   0.8243   0.01654   0.00942  -0.2368   0.7830   0.3069
  -1.250   0.8677   0.01628   0.00908  -0.2393   0.7723   0.3294
  -1.000   0.8991   0.01626   0.00900  -0.2396   0.7578   0.3482
  -0.750   0.9301   0.01629   0.00897  -0.2399   0.7437   0.3665
  -0.500   0.9643   0.01632   0.00890  -0.2407   0.7311   0.3853
  -0.250   0.9947   0.01642   0.00891  -0.2409   0.7177   0.4029
   0.000   1.0219   0.01658   0.00902  -0.2405   0.7041   0.4198
   0.250   1.0530   0.01674   0.00906  -0.2409   0.6924   0.4374
   0.500   1.0800   0.01694   0.00918  -0.2405   0.6798   0.4544
   0.750   1.1062   0.01715   0.00939  -0.2399   0.6680   0.4692
   1.000   1.1352   0.01735   0.00950  -0.2398   0.6571   0.4848
   1.250   1.1595   0.01759   0.00974  -0.2390   0.6456   0.4998
   1.500   1.1901   0.01782   0.00984  -0.2392   0.6360   0.5164
   1.750   1.2130   0.01807   0.01011  -0.2382   0.6246   0.5320
   2.250   1.2645   0.01857   0.01058  -0.2370   0.6051   0.5620
   2.500   1.2936   0.01883   0.01074  -0.2371   0.5965   0.5780
   2.750   1.3161   0.01910   0.01106  -0.2360   0.5865   0.5931
   3.000   1.3436   0.01935   0.01124  -0.2358   0.5780   0.6098
   3.250   1.3679   0.01966   0.01158  -0.2350   0.5691   0.6262
   3.500   1.3934   0.01992   0.01182  -0.2345   0.5603   0.6433
   3.750   1.4197   0.02023   0.01211  -0.2341   0.5523   0.6602
   4.000   1.4425   0.02050   0.01243  -0.2331   0.5436   0.6774
   4.250   1.4717   0.02080   0.01265  -0.2333   0.5363   0.6966
   4.500   1.4923   0.02111   0.01307  -0.2319   0.5277   0.7156
   4.750   1.5171   0.02135   0.01331  -0.2312   0.5199   0.7362
   5.000   1.5420   0.02167   0.01364  -0.2307   0.5128   0.7593
   5.250   1.5624   0.02194   0.01400  -0.2292   0.5047   0.7863
   5.500   1.5871   0.02211   0.01416  -0.2286   0.4978   0.8225
   5.750   1.6029   0.02221   0.01446  -0.2262   0.4908   1.0000
   6.000   1.6291   0.02266   0.01488  -0.2262   0.4829   1.0000
   6.250   1.6614   0.02315   0.01517  -0.2272   0.4762   1.0000
   6.500   1.6791   0.02366   0.01580  -0.2255   0.4684   1.0000
   6.750   1.7034   0.02409   0.01619  -0.2250   0.4613   1.0000
   7.000   1.7308   0.02462   0.01662  -0.2250   0.4547   1.0000
   7.250   1.7473   0.02514   0.01726  -0.2230   0.4472   1.0000
   7.500   1.7713   0.02557   0.01765  -0.2224   0.4404   1.0000
   7.750   1.7949   0.02616   0.01821  -0.2218   0.4339   1.0000
   8.000   1.8106   0.02671   0.01888  -0.2197   0.4267   1.0000
   8.250   1.8343   0.02716   0.01927  -0.2190   0.4201   1.0000
   8.500   1.8546   0.02781   0.01995  -0.2178   0.4137   1.0000
   8.750   1.8687   0.02840   0.02064  -0.2155   0.4066   1.0000
   9.000   1.8919   0.02887   0.02107  -0.2148   0.4002   1.0000
   9.250   1.9087   0.02958   0.02185  -0.2130   0.3938   1.0000
   9.500   1.9198   0.03022   0.02260  -0.2102   0.3870   1.0000
   9.750   1.9417   0.03072   0.02305  -0.2092   0.3808   1.0000
  10.000   1.9538   0.03150   0.02392  -0.2067   0.3745   1.0000
  10.250   1.9600   0.03223   0.02478  -0.2031   0.3680   1.0000
  10.500   1.9794   0.03277   0.02528  -0.2018   0.3618   1.0000
  10.750   1.9898   0.03365   0.02626  -0.1992   0.3556   1.0000
  11.000   1.9932   0.03457   0.02732  -0.1954   0.3491   1.0000
  11.250   2.0102   0.03518   0.02790  -0.1938   0.3429   1.0000
  11.500   2.0185   0.03623   0.02905  -0.1911   0.3367   1.0000
  11.750   2.0194   0.03737   0.03035  -0.1872   0.3302   1.0000
  12.000   2.0341   0.03810   0.03104  -0.1855   0.3240   1.0000
  12.250   2.0387   0.03939   0.03245  -0.1825   0.3177   1.0000
  12.500   2.0374   0.04081   0.03404  -0.1788   0.3113   1.0000
  12.750   2.0517   0.04162   0.03480  -0.1772   0.3048   1.0000
  13.000   2.0496   0.04337   0.03672  -0.1737   0.2986   1.0000
  13.250   2.0470   0.04510   0.03859  -0.1704   0.2921   1.0000
  13.500   2.0639   0.04591   0.03929  -0.1693   0.2852   1.0000
  13.750   2.0514   0.04847   0.04212  -0.1654   0.2793   1.0000
  14.000   2.0483   0.05052   0.04429  -0.1626   0.2728   1.0000
  14.250   2.0605   0.05172   0.04539  -0.1613   0.2660   1.0000
  14.500   2.0445   0.05499   0.04896  -0.1580   0.2600   1.0000
  14.750   2.0418   0.05734   0.05139  -0.1559   0.2535   1.0000
  15.000   2.0448   0.05945   0.05351  -0.1543   0.2469   1.0000
