  
       XFOIL         Version 6.99
  
 Calculated polar for: MH 114  13.02%                                  
  
 1 1 Reynolds number fixed          Mach number fixed         
  
 xtrf =   1.000 (top)        1.000 (bottom)  
 Mach =   0.000     Re =     0.150 e 6     Ncrit =   9.000
  
   alpha    CL        CD       CDp       CM     Top_Xtr  Bot_Xtr
  ------ -------- --------- --------- -------- -------- --------
  -4.750   0.0566   0.05978   0.05594  -0.1253   0.8481   0.0864
  -4.500   0.1011   0.05309   0.04894  -0.1389   0.8449   0.0987
  -4.250   0.1337   0.05094   0.04685  -0.1396   0.8435   0.1048
  -4.000   0.1851   0.04529   0.04091  -0.1500   0.8424   0.1172
  -3.750   0.2825   0.02714   0.01989  -0.1694   0.8428   0.0441
  -3.500   0.3311   0.02561   0.01802  -0.1729   0.8418   0.0497
  -3.000   0.3828   0.02372   0.01607  -0.1724   0.8291   0.0632
  -2.750   0.4284   0.02245   0.01475  -0.1754   0.8275   0.0821
  -2.500   0.4584   0.02175   0.01415  -0.1759   0.8222   0.1084
  -2.250   0.4880   0.02113   0.01371  -0.1765   0.8160   0.1539
  -1.750   0.5746   0.01930   0.01248  -0.1822   0.8112   0.3532
  -1.000   0.6672   0.01846   0.01213  -0.1831   0.7956   0.5834
  -0.500   0.7159   0.01828   0.01216  -0.1809   0.7826   0.7014
  -0.250   0.7485   0.01778   0.01172  -0.1808   0.7792   0.7648
   0.000   0.7599   0.01787   0.01192  -0.1771   0.7708   0.8243
   0.250   0.7766   0.01735   0.01149  -0.1737   0.7652   0.9311
   0.500   0.8250   0.01691   0.01082  -0.1775   0.7620   1.0000
   0.750   0.8454   0.01729   0.01111  -0.1765   0.7523   1.0000
   1.000   0.8852   0.01704   0.01069  -0.1786   0.7477   1.0000
   1.250   0.9119   0.01721   0.01075  -0.1784   0.7401   1.0000
   1.500   0.9444   0.01714   0.01057  -0.1792   0.7335   1.0000
   1.750   0.9841   0.01691   0.01018  -0.1811   0.7290   1.0000
   2.000   1.0034   0.01721   0.01047  -0.1797   0.7190   1.0000
   2.250   1.0422   0.01698   0.01009  -0.1814   0.7139   1.0000
   2.500   1.0621   0.01727   0.01038  -0.1800   0.7040   1.0000
   2.750   1.0991   0.01708   0.01007  -0.1814   0.6982   1.0000
   3.000   1.1195   0.01735   0.01034  -0.1801   0.6883   1.0000
   3.250   1.1559   0.01719   0.01006  -0.1815   0.6821   1.0000
   3.500   1.1756   0.01747   0.01037  -0.1800   0.6719   1.0000
   3.750   1.2114   0.01735   0.01013  -0.1813   0.6651   1.0000
   4.000   1.2309   0.01762   0.01042  -0.1798   0.6545   1.0000
   4.250   1.2593   0.01769   0.01045  -0.1798   0.6460   1.0000
   4.500   1.2860   0.01779   0.01052  -0.1795   0.6366   1.0000
   4.750   1.3089   0.01801   0.01074  -0.1786   0.6265   1.0000
   5.000   1.3414   0.01801   0.01064  -0.1793   0.6181   1.0000
   5.250   1.3602   0.01831   0.01099  -0.1777   0.6068   1.0000
   5.500   1.3847   0.01851   0.01118  -0.1770   0.5967   1.0000
   5.750   1.4131   0.01863   0.01123  -0.1771   0.5869   1.0000
   6.000   1.4319   0.01896   0.01161  -0.1755   0.5754   1.0000
   6.250   1.4550   0.01923   0.01186  -0.1746   0.5647   1.0000
   6.500   1.4826   0.01942   0.01197  -0.1746   0.5545   1.0000
   6.750   1.4993   0.01980   0.01242  -0.1726   0.5425   1.0000
   7.000   1.5195   0.02015   0.01279  -0.1713   0.5312   1.0000
   7.250   1.5432   0.02046   0.01305  -0.1706   0.5204   1.0000
   7.500   1.5617   0.02085   0.01344  -0.1690   0.5088   1.0000
   7.750   1.5780   0.02129   0.01394  -0.1671   0.4970   1.0000
   8.000   1.5972   0.02172   0.01436  -0.1657   0.4859   1.0000
   8.250   1.6193   0.02212   0.01470  -0.1648   0.4748   1.0000
   8.500   1.6290   0.02266   0.01534  -0.1617   0.4631   1.0000
   8.750   1.6426   0.02318   0.01589  -0.1594   0.4519   1.0000
   9.000   1.6599   0.02369   0.01636  -0.1577   0.4410   1.0000
   9.250   1.6697   0.02429   0.01700  -0.1548   0.4298   1.0000
   9.500   1.6793   0.02496   0.01774  -0.1520   0.4186   1.0000
   9.750   1.6925   0.02561   0.01839  -0.1498   0.4077   1.0000
  10.000   1.7037   0.02630   0.01908  -0.1474   0.3967   1.0000
  10.250   1.7088   0.02717   0.02005  -0.1441   0.3856   1.0000
  10.500   1.7183   0.02801   0.02092  -0.1416   0.3748   1.0000
  10.750   1.7307   0.02881   0.02167  -0.1396   0.3639   1.0000
  11.000   1.7312   0.02995   0.02296  -0.1360   0.3529   1.0000
  11.250   1.7375   0.03104   0.02409  -0.1334   0.3421   1.0000
  11.500   1.7456   0.03211   0.02514  -0.1311   0.3314   1.0000
  11.750   1.7467   0.03347   0.02662  -0.1281   0.3205   1.0000
  12.000   1.7496   0.03489   0.02811  -0.1255   0.3096   1.0000
  12.250   1.7542   0.03630   0.02952  -0.1232   0.2990   1.0000
  12.500   1.7559   0.03790   0.03117  -0.1207   0.2883   1.0000
  12.750   1.7554   0.03973   0.03311  -0.1183   0.2776   1.0000
  13.000   1.7570   0.04153   0.03493  -0.1161   0.2672   1.0000
  13.250   1.7586   0.04339   0.03679  -0.1141   0.2568   1.0000
  13.500   1.7553   0.04570   0.03926  -0.1119   0.2463   1.0000
  13.750   1.7548   0.04793   0.04153  -0.1101   0.2363   1.0000
  14.000   1.7554   0.05015   0.04370  -0.1085   0.2264   1.0000
  14.250   1.7503   0.05297   0.04670  -0.1069   0.2164   1.0000
  14.500   1.7483   0.05565   0.04943  -0.1055   0.2069   1.0000
  14.750   1.7472   0.05829   0.05202  -0.1042   0.1977   1.0000
  15.000   1.7412   0.06162   0.05554  -0.1032   0.1884   1.0000
