  
       XFOIL         Version 6.99
  
 Calculated polar for: GA                                              
  
 1 1 Reynolds number fixed          Mach number fixed         
  
 xtrf =   1.000 (top)        1.000 (bottom)  
 Mach =   0.000     Re =     0.200 e 6     Ncrit =   9.000
  
   alpha    CL        CD       CDp       CM     Top_Xtr  Bot_Xtr
  ------ -------- --------- --------- -------- -------- --------
  -5.000   0.3029   0.01638   0.00969  -0.2058   0.8432   0.1408
  -4.750   0.3338   0.01609   0.00941  -0.2064   0.8384   0.1570
  -4.500   0.3605   0.01599   0.00931  -0.2063   0.8314   0.1723
  -4.250   0.3916   0.01578   0.00906  -0.2068   0.8265   0.1887
  -4.000   0.4246   0.01558   0.00879  -0.2075   0.8227   0.2050
  -3.750   0.4505   0.01559   0.00880  -0.2072   0.8156   0.2190
  -3.500   0.4795   0.01550   0.00866  -0.2072   0.8098   0.2335
  -3.250   0.5112   0.01536   0.00843  -0.2077   0.8053   0.2483
  -3.000   0.5399   0.01538   0.00840  -0.2076   0.7998   0.2618
  -2.750   0.5664   0.01537   0.00844  -0.2073   0.7930   0.2736
  -2.500   0.5968   0.01525   0.00826  -0.2075   0.7879   0.2865
  -2.250   0.6288   0.01519   0.00806  -0.2080   0.7837   0.3002
  -2.000   0.6529   0.01528   0.00825  -0.2072   0.7760   0.3106
  -1.750   0.6822   0.01521   0.00813  -0.2073   0.7704   0.3226
  -1.500   0.7139   0.01516   0.00795  -0.2076   0.7659   0.3356
  -1.250   0.7389   0.01523   0.00811  -0.2070   0.7589   0.3453
  -1.000   0.7674   0.01521   0.00804  -0.2070   0.7527   0.3572
  -0.750   0.7979   0.01516   0.00794  -0.2072   0.7478   0.3686
  -0.500   0.8244   0.01523   0.00804  -0.2068   0.7413   0.3790
  -0.250   0.8520   0.01528   0.00804  -0.2066   0.7347   0.3910
   0.000   0.8818   0.01521   0.00798  -0.2067   0.7295   0.4011
   0.250   0.9092   0.01530   0.00803  -0.2065   0.7233   0.4126
   0.500   0.9355   0.01536   0.00814  -0.2060   0.7163   0.4230
   0.750   0.9654   0.01532   0.00806  -0.2062   0.7108   0.4341
   1.000   0.9927   0.01543   0.00815  -0.2059   0.7046   0.4460
   1.250   1.0186   0.01548   0.00827  -0.2055   0.6974   0.4559
   1.500   1.0484   0.01548   0.00820  -0.2056   0.6918   0.4681
   1.750   1.0748   0.01559   0.00836  -0.2052   0.6853   0.4790
   2.000   1.1010   0.01566   0.00847  -0.2048   0.6780   0.4901
   2.250   1.1308   0.01568   0.00843  -0.2049   0.6722   0.5032
   2.500   1.1559   0.01581   0.00864  -0.2043   0.6651   0.5138
   2.750   1.1823   0.01587   0.00873  -0.2040   0.6579   0.5260
   3.000   1.2122   0.01592   0.00871  -0.2041   0.6521   0.5399
   3.250   1.2356   0.01606   0.00899  -0.2033   0.6442   0.5514
   3.500   1.2627   0.01611   0.00905  -0.2030   0.6370   0.5647
   3.750   1.2911   0.01621   0.00914  -0.2029   0.6307   0.5792
   4.000   1.3144   0.01635   0.00938  -0.2021   0.6222   0.5939
   4.250   1.3424   0.01639   0.00942  -0.2019   0.6154   0.6092
   4.500   1.3665   0.01654   0.00967  -0.2012   0.6075   0.6252
   4.750   1.3920   0.01662   0.00981  -0.2007   0.5994   0.6433
   5.000   1.4194   0.01672   0.00993  -0.2005   0.5922   0.6640
   5.250   1.4420   0.01684   0.01018  -0.1995   0.5831   0.6870
   5.500   1.4697   0.01686   0.01020  -0.1993   0.5757   0.7180
   5.750   1.4888   0.01689   0.01050  -0.1976   0.5663   0.7734
   6.000   1.5123   0.01680   0.01050  -0.1966   0.5581   1.0000
   6.250   1.5346   0.01709   0.01081  -0.1956   0.5483   1.0000
   6.500   1.5598   0.01730   0.01094  -0.1951   0.5391   1.0000
   6.750   1.5804   0.01760   0.01130  -0.1938   0.5289   1.0000
   7.000   1.6047   0.01784   0.01145  -0.1931   0.5192   1.0000
   7.250   1.6226   0.01816   0.01186  -0.1913   0.5081   1.0000
   7.500   1.6452   0.01846   0.01208  -0.1903   0.4978   1.0000
   7.750   1.6613   0.01881   0.01250  -0.1882   0.4860   1.0000
   8.000   1.6795   0.01918   0.01287  -0.1865   0.4748   1.0000
   8.250   1.6964   0.01956   0.01323  -0.1846   0.4630   1.0000
   8.500   1.7092   0.02001   0.01374  -0.1820   0.4507   1.0000
   8.750   1.7226   0.02048   0.01418  -0.1795   0.4389   1.0000
   9.000   1.7307   0.02098   0.01470  -0.1761   0.4266   1.0000
   9.250   1.7382   0.02157   0.01533  -0.1727   0.4141   1.0000
   9.500   1.7459   0.02225   0.01597  -0.1695   0.4018   1.0000
   9.750   1.7513   0.02302   0.01676  -0.1661   0.3885   1.0000
  10.000   1.7564   0.02389   0.01766  -0.1628   0.3751   1.0000
  10.250   1.7610   0.02488   0.01866  -0.1596   0.3616   1.0000
  10.750   1.7666   0.02729   0.02105  -0.1532   0.3331   1.0000
  11.000   1.7686   0.02868   0.02246  -0.1502   0.3184   1.0000
  11.250   1.7695   0.03025   0.02403  -0.1473   0.3036   1.0000
  11.500   1.7690   0.03203   0.02578  -0.1445   0.2888   1.0000
  11.750   1.7670   0.03403   0.02774  -0.1417   0.2739   1.0000
  12.000   1.7655   0.03613   0.02984  -0.1393   0.2584   1.0000
  12.250   1.7635   0.03839   0.03211  -0.1370   0.2431   1.0000
  12.500   1.7606   0.04087   0.03459  -0.1348   0.2283   1.0000
  12.750   1.7568   0.04357   0.03727  -0.1328   0.2141   1.0000
  13.000   1.7520   0.04651   0.04018  -0.1310   0.2005   1.0000
  13.250   1.7459   0.04974   0.04336  -0.1294   0.1878   1.0000
  13.500   1.7425   0.05285   0.04649  -0.1281   0.1750   1.0000
  13.750   1.7388   0.05613   0.04979  -0.1270   0.1633   1.0000
  14.000   1.7340   0.05966   0.05331  -0.1261   0.1528   1.0000
  14.250   1.7277   0.06348   0.05709  -0.1253   0.1436   1.0000
  14.500   1.7257   0.06692   0.06060  -0.1247   0.1341   1.0000
  14.750   1.7216   0.07071   0.06440  -0.1243   0.1263   1.0000
  15.000   1.7172   0.07463   0.06832  -0.1240   0.1191   1.0000
