  
       XFOIL         Version 6.99
  
 Calculated polar for: GA                                              
  
 1 1 Reynolds number fixed          Mach number fixed         
  
 xtrf =   1.000 (top)        1.000 (bottom)  
 Mach =   0.000     Re =     0.200 e 6     Ncrit =   9.000
  
   alpha    CL        CD       CDp       CM     Top_Xtr  Bot_Xtr
  ------ -------- --------- --------- -------- -------- --------
  -5.000   0.3368   0.01707   0.01041  -0.2064   0.8248   0.1300
  -4.750   0.3700   0.01669   0.00999  -0.2072   0.8208   0.1431
  -4.500   0.3985   0.01653   0.00982  -0.2073   0.8147   0.1560
  -4.250   0.4268   0.01638   0.00965  -0.2073   0.8082   0.1691
  -4.000   0.4583   0.01615   0.00937  -0.2077   0.8034   0.1830
  -3.750   0.4908   0.01598   0.00911  -0.2083   0.7993   0.1972
  -3.500   0.5162   0.01605   0.00914  -0.2078   0.7915   0.2099
  -3.250   0.5457   0.01591   0.00904  -0.2078   0.7859   0.2225
  -3.000   0.5776   0.01576   0.00883  -0.2082   0.7815   0.2353
  -2.750   0.6042   0.01578   0.00883  -0.2078   0.7745   0.2475
  -2.500   0.6329   0.01577   0.00875  -0.2077   0.7682   0.2603
  -2.250   0.6636   0.01564   0.00863  -0.2079   0.7634   0.2719
  -2.000   0.6915   0.01565   0.00861  -0.2077   0.7572   0.2835
  -1.750   0.7191   0.01568   0.00860  -0.2074   0.7502   0.2955
  -1.500   0.7492   0.01558   0.00849  -0.2074   0.7449   0.3063
  -1.250   0.7782   0.01559   0.00843  -0.2074   0.7391   0.3181
  -1.000   0.8044   0.01564   0.00853  -0.2069   0.7318   0.3288
  -0.750   0.8345   0.01556   0.00840  -0.2070   0.7261   0.3397
  -0.500   0.8636   0.01562   0.00837  -0.2069   0.7203   0.3518
  -0.250   0.8893   0.01565   0.00849  -0.2063   0.7127   0.3612
   0.000   0.9194   0.01561   0.00835  -0.2064   0.7068   0.3731
   0.250   0.9472   0.01567   0.00843  -0.2062   0.7006   0.3833
   0.500   0.9736   0.01572   0.00848  -0.2057   0.6929   0.3939
   0.750   1.0032   0.01570   0.00841  -0.2057   0.6869   0.4054
   1.000   1.0300   0.01578   0.00851  -0.2053   0.6801   0.4154
   1.250   1.0570   0.01585   0.00855  -0.2049   0.6724   0.4275
   1.500   1.0864   0.01583   0.00852  -0.2049   0.6664   0.4375
   1.750   1.1118   0.01595   0.00867  -0.2043   0.6585   0.4488
   2.000   1.1390   0.01599   0.00871  -0.2040   0.6510   0.4598
   2.250   1.1684   0.01603   0.00870  -0.2040   0.6448   0.4710
   2.500   1.1924   0.01617   0.00889  -0.2032   0.6360   0.4833
   2.750   1.2204   0.01618   0.00890  -0.2029   0.6290   0.4940
   3.000   1.2459   0.01631   0.00905  -0.2023   0.6210   0.5059
   3.250   1.2718   0.01640   0.00915  -0.2018   0.6128   0.5187
   3.500   1.2997   0.01648   0.00920  -0.2016   0.6056   0.5306
   3.750   1.3230   0.01661   0.00941  -0.2007   0.5964   0.5432
   4.000   1.3513   0.01669   0.00942  -0.2005   0.5888   0.5578
   4.250   1.3738   0.01685   0.00969  -0.1995   0.5795   0.5706
   4.500   1.4000   0.01693   0.00976  -0.1990   0.5711   0.5852
   4.750   1.4234   0.01710   0.00999  -0.1981   0.5620   0.6005
   5.000   1.4480   0.01721   0.01013  -0.1974   0.5529   0.6172
   5.250   1.4719   0.01739   0.01035  -0.1966   0.5436   0.6354
   5.500   1.4954   0.01753   0.01052  -0.1957   0.5340   0.6558
   5.750   1.5181   0.01771   0.01076  -0.1947   0.5244   0.6801
   6.000   1.5400   0.01782   0.01094  -0.1935   0.5145   0.7120
   6.500   1.5792   0.01796   0.01132  -0.1904   0.4946   1.0000
   6.750   1.5993   0.01832   0.01167  -0.1890   0.4839   1.0000
   7.000   1.6207   0.01868   0.01191  -0.1879   0.4736   1.0000
   7.250   1.6373   0.01907   0.01236  -0.1859   0.4624   1.0000
   7.500   1.6570   0.01950   0.01266  -0.1845   0.4520   1.0000
   7.750   1.6706   0.01993   0.01315  -0.1821   0.4405   1.0000
   8.000   1.6857   0.02042   0.01359  -0.1799   0.4298   1.0000
   8.250   1.6961   0.02091   0.01407  -0.1770   0.4188   1.0000
   8.500   1.7063   0.02148   0.01464  -0.1741   0.4079   1.0000
   8.750   1.7165   0.02211   0.01520  -0.1713   0.3971   1.0000
   9.000   1.7245   0.02280   0.01594  -0.1682   0.3858   1.0000
   9.250   1.7339   0.02358   0.01664  -0.1655   0.3752   1.0000
   9.500   1.7404   0.02442   0.01753  -0.1625   0.3636   1.0000
   9.750   1.7479   0.02536   0.01846  -0.1598   0.3528   1.0000
  10.000   1.7541   0.02640   0.01947  -0.1571   0.3416   1.0000
  10.250   1.7604   0.02750   0.02060  -0.1545   0.3306   1.0000
  10.500   1.7658   0.02875   0.02177  -0.1519   0.3200   1.0000
  10.750   1.7707   0.03003   0.02313  -0.1494   0.3088   1.0000
  11.000   1.7754   0.03147   0.02452  -0.1470   0.2986   1.0000
  11.250   1.7793   0.03297   0.02606  -0.1447   0.2878   1.0000
  11.500   1.7833   0.03459   0.02768  -0.1425   0.2778   1.0000
  11.750   1.7861   0.03634   0.02942  -0.1404   0.2677   1.0000
  12.000   1.7896   0.03814   0.03126  -0.1385   0.2580   1.0000
  12.250   1.7916   0.04012   0.03321  -0.1365   0.2486   1.0000
  12.500   1.7947   0.04210   0.03525  -0.1349   0.2395   1.0000
  12.750   1.7960   0.04430   0.03741  -0.1332   0.2308   1.0000
  13.000   1.7989   0.04646   0.03965  -0.1317   0.2222   1.0000
  13.250   1.8000   0.04884   0.04202  -0.1303   0.2142   1.0000
  13.500   1.8025   0.05121   0.04444  -0.1291   0.2064   1.0000
  13.750   1.8038   0.05374   0.04700  -0.1280   0.1988   1.0000
  14.000   1.8058   0.05630   0.04955  -0.1270   0.1918   1.0000
  14.250   1.8071   0.05899   0.05234  -0.1261   0.1848   1.0000
  14.500   1.8096   0.06160   0.05484  -0.1252   0.1783   1.0000
  14.750   1.8103   0.06452   0.05794  -0.1246   0.1722   1.0000
  15.000   1.8113   0.06743   0.06086  -0.1241   0.1663   1.0000
