  
       XFOIL         Version 6.99
  
 Calculated polar for: GA                                              
  
 1 1 Reynolds number fixed          Mach number fixed         
  
 xtrf =   1.000 (top)        1.000 (bottom)  
 Mach =   0.000     Re =     0.200 e 6     Ncrit =   9.000
  
   alpha    CL        CD       CDp       CM     Top_Xtr  Bot_Xtr
  ------ -------- --------- --------- -------- -------- --------
  -5.000   0.0101   0.02145   0.01441  -0.1544   0.8857   0.1239
  -4.750   0.0522   0.02084   0.01379  -0.1570   0.8843   0.1343
  -4.250   0.1024   0.02028   0.01314  -0.1559   0.8704   0.1531
  -4.000   0.1434   0.01973   0.01258  -0.1581   0.8685   0.1660
  -3.750   0.1862   0.01914   0.01201  -0.1607   0.8671   0.1800
  -3.500   0.2301   0.01856   0.01143  -0.1634   0.8661   0.1950
  -2.750   0.3248   0.01750   0.01048  -0.1647   0.8504   0.2349
  -2.500   0.3709   0.01695   0.00994  -0.1678   0.8490   0.2517
  -2.250   0.4190   0.01645   0.00945  -0.1713   0.8477   0.2690
  -1.750   0.4744   0.01604   0.00904  -0.1706   0.8332   0.2964
  -1.500   0.5212   0.01556   0.00859  -0.1738   0.8308   0.3133
  -1.000   0.5829   0.01511   0.00816  -0.1743   0.8164   0.3414
  -0.750   0.6277   0.01472   0.00774  -0.1771   0.8122   0.3585
  -0.500   0.6556   0.01460   0.00766  -0.1768   0.8037   0.3720
  -0.250   0.6894   0.01436   0.00744  -0.1776   0.7959   0.3862
   0.000   0.7331   0.01406   0.00711  -0.1803   0.7903   0.4028
   0.250   0.7526   0.01409   0.00713  -0.1783   0.7785   0.4160
   0.500   0.7940   0.01386   0.00687  -0.1806   0.7717   0.4324
   0.750   0.8135   0.01388   0.00696  -0.1786   0.7596   0.4444
   1.000   0.8503   0.01374   0.00678  -0.1800   0.7512   0.4603
   1.250   0.8720   0.01378   0.00682  -0.1785   0.7391   0.4746
   1.500   0.9028   0.01376   0.00678  -0.1788   0.7292   0.4903
   1.750   0.9284   0.01376   0.00681  -0.1780   0.7178   0.5048
   2.000   0.9543   0.01380   0.00685  -0.1774   0.7066   0.5200
   2.250   0.9838   0.01381   0.00683  -0.1774   0.6958   0.5369
   2.500   1.0053   0.01389   0.00696  -0.1759   0.6836   0.5530
   2.750   1.0345   0.01394   0.00697  -0.1759   0.6728   0.5716
   3.000   1.0558   0.01403   0.00710  -0.1744   0.6604   0.5896
   3.250   1.0802   0.01411   0.00721  -0.1735   0.6489   0.6096
   3.500   1.1057   0.01419   0.00729  -0.1728   0.6374   0.6321
   3.750   1.1254   0.01428   0.00746  -0.1710   0.6252   0.6569
   4.000   1.1510   0.01435   0.00756  -0.1703   0.6141   0.6887
   4.250   1.1704   0.01437   0.00772  -0.1684   0.6018   0.7344
   4.500   1.1952   0.01415   0.00778  -0.1675   0.5901   1.0000
   4.750   1.2203   0.01441   0.00791  -0.1669   0.5783   1.0000
   5.000   1.2394   0.01467   0.00814  -0.1651   0.5660   1.0000
   5.250   1.2635   0.01497   0.00831  -0.1643   0.5546   1.0000
   5.500   1.2820   0.01524   0.00855  -0.1624   0.5422   1.0000
   5.750   1.3019   0.01554   0.00880  -0.1608   0.5305   1.0000
   6.000   1.3236   0.01586   0.00901  -0.1595   0.5189   1.0000
   6.250   1.3382   0.01615   0.00932  -0.1568   0.5067   1.0000
   6.500   1.3577   0.01650   0.00959  -0.1552   0.4954   1.0000
   6.750   1.3716   0.01681   0.00989  -0.1524   0.4834   1.0000
   7.000   1.3874   0.01717   0.01022  -0.1501   0.4719   1.0000
   7.250   1.4044   0.01756   0.01053  -0.1480   0.4603   1.0000
   7.500   1.4162   0.01793   0.01094  -0.1450   0.4483   1.0000
   7.750   1.4323   0.01837   0.01130  -0.1428   0.4370   1.0000
   8.000   1.4444   0.01879   0.01173  -0.1400   0.4249   1.0000
   8.250   1.4576   0.01925   0.01219  -0.1374   0.4133   1.0000
   8.500   1.4718   0.01977   0.01262  -0.1350   0.4018   1.0000
   8.750   1.4821   0.02027   0.01318  -0.1321   0.3896   1.0000
   9.000   1.4944   0.02085   0.01372  -0.1295   0.3783   1.0000
   9.250   1.5048   0.02145   0.01431  -0.1267   0.3663   1.0000
   9.500   1.5153   0.02209   0.01498  -0.1240   0.3545   1.0000
   9.750   1.5258   0.02282   0.01562  -0.1214   0.3432   1.0000
  10.000   1.5344   0.02353   0.01641  -0.1186   0.3310   1.0000
  10.250   1.5436   0.02434   0.01721  -0.1159   0.3196   1.0000
  10.500   1.5512   0.02524   0.01806  -0.1132   0.3081   1.0000
  10.750   1.5593   0.02613   0.01901  -0.1106   0.2962   1.0000
  11.000   1.5661   0.02717   0.02002  -0.1079   0.2852   1.0000
  11.250   1.5723   0.02825   0.02111  -0.1053   0.2736   1.0000
  11.500   1.5788   0.02939   0.02228  -0.1028   0.2623   1.0000
  11.750   1.5827   0.03074   0.02356  -0.1002   0.2518   1.0000
  12.000   1.5883   0.03201   0.02491  -0.0979   0.2403   1.0000
  12.250   1.5925   0.03347   0.02637  -0.0956   0.2299   1.0000
  12.500   1.5949   0.03510   0.02797  -0.0932   0.2196   1.0000
  12.750   1.5991   0.03669   0.02962  -0.0912   0.2091   1.0000
  13.000   1.6003   0.03857   0.03146  -0.0891   0.1999   1.0000
  13.250   1.6030   0.04041   0.03336  -0.0873   0.1899   1.0000
  13.500   1.6045   0.04244   0.03541  -0.0855   0.1811   1.0000
  13.750   1.6046   0.04467   0.03763  -0.0838   0.1724   1.0000
  14.000   1.6065   0.04685   0.03987  -0.0824   0.1639   1.0000
  14.250   1.6048   0.04942   0.04238  -0.0809   0.1564   1.0000
  14.500   1.6065   0.05178   0.04486  -0.0798   0.1486   1.0000
  14.750   1.6044   0.05458   0.04759  -0.0787   0.1420   1.0000
  15.000   1.6055   0.05717   0.05032  -0.0779   0.1350   1.0000
