  
       XFOIL         Version 6.99
  
 Calculated polar for: GA                                              
  
 1 1 Reynolds number fixed          Mach number fixed         
  
 xtrf =   1.000 (top)        1.000 (bottom)  
 Mach =   0.000     Re =     0.150 e 6     Ncrit =   9.000
  
   alpha    CL        CD       CDp       CM     Top_Xtr  Bot_Xtr
  ------ -------- --------- --------- -------- -------- --------
   0.000   0.8337   0.01566   0.00897  -0.1888   0.7742   0.5308
   0.100   0.8557   0.01546   0.00871  -0.1906   0.7710   0.5431
   0.200   0.8599   0.01552   0.00881  -0.1891   0.7632   0.5495
   0.300   0.8744   0.01545   0.00869  -0.1895   0.7577   0.5602
   0.400   0.8926   0.01530   0.00853  -0.1906   0.7535   0.5698
   0.500   0.9039   0.01529   0.00849  -0.1905   0.7472   0.5793
   0.600   0.9139   0.01528   0.00849  -0.1900   0.7406   0.5870
   0.700   0.9302   0.01520   0.00836  -0.1908   0.7354   0.5978
   0.800   0.9434   0.01517   0.00831  -0.1910   0.7297   0.6065
   0.900   0.9521   0.01521   0.00833  -0.1904   0.7225   0.6156
   1.000   0.9659   0.01516   0.00827  -0.1907   0.7169   0.6246
   1.100   0.9801   0.01515   0.00820  -0.1912   0.7113   0.6349
   1.200   0.9873   0.01519   0.00827  -0.1903   0.7041   0.6428
   1.300   1.0002   0.01519   0.00822  -0.1904   0.6981   0.6531
   1.400   1.0139   0.01519   0.00818  -0.1907   0.6926   0.6630
   1.500   1.0209   0.01524   0.00825  -0.1898   0.6854   0.6721
   1.600   1.0322   0.01526   0.00824  -0.1897   0.6794   0.6821
   1.700   1.0463   0.01527   0.00819  -0.1901   0.6741   0.6929
   1.800   1.0528   0.01533   0.00828  -0.1891   0.6670   0.7033
   1.900   1.0629   0.01535   0.00829  -0.1887   0.6609   0.7135
   2.000   1.0770   0.01538   0.00825  -0.1892   0.6557   0.7261
   2.100   1.0834   0.01544   0.00834  -0.1882   0.6490   0.7373
   2.200   1.0923   0.01546   0.00837  -0.1876   0.6428   0.7497
   2.300   1.1046   0.01549   0.00834  -0.1876   0.6376   0.7643
   2.400   1.1127   0.01553   0.00839  -0.1870   0.6316   0.7796
   2.500   1.1200   0.01554   0.00845  -0.1861   0.6255   0.7971
   2.600   1.1290   0.01551   0.00842  -0.1855   0.6202   0.8204
   2.700   1.1375   0.01542   0.00837  -0.1847   0.6154   0.8620
   2.800   1.1444   0.01537   0.00839  -0.1839   0.6090   1.0000
   2.900   1.1559   0.01550   0.00844  -0.1840   0.6031   1.0000
   3.000   1.1701   0.01564   0.00845  -0.1846   0.5980   1.0000
   3.100   1.1791   0.01578   0.00856  -0.1842   0.5921   1.0000
   3.200   1.1884   0.01591   0.00865  -0.1839   0.5862   1.0000
   3.300   1.2000   0.01605   0.00870  -0.1840   0.5809   1.0000
   3.400   1.2118   0.01621   0.00878  -0.1841   0.5759   1.0000
   3.500   1.2193   0.01634   0.00891  -0.1834   0.5700   1.0000
   3.600   1.2288   0.01647   0.00899  -0.1831   0.5645   1.0000
   3.700   1.2408   0.01663   0.00904  -0.1832   0.5597   1.0000
   3.800   1.2501   0.01678   0.00916  -0.1829   0.5546   1.0000
   3.900   1.2580   0.01692   0.00929  -0.1822   0.5490   1.0000
   4.000   1.2676   0.01705   0.00938  -0.1819   0.5439   1.0000
   4.100   1.2797   0.01722   0.00944  -0.1821   0.5394   1.0000
   4.200   1.2874   0.01737   0.00959  -0.1814   0.5342   1.0000
   4.300   1.2953   0.01751   0.00974  -0.1808   0.5288   1.0000
   4.400   1.3048   0.01766   0.00983  -0.1805   0.5240   1.0000
   4.500   1.3169   0.01784   0.00991  -0.1806   0.5196   1.0000
   4.600   1.3241   0.01799   0.01007  -0.1799   0.5146   1.0000
   4.700   1.3317   0.01813   0.01022  -0.1792   0.5094   1.0000
   4.800   1.3409   0.01828   0.01032  -0.1788   0.5048   1.0000
   4.900   1.3525   0.01847   0.01041  -0.1789   0.5005   1.0000
   5.000   1.3600   0.01863   0.01058  -0.1782   0.4957   1.0000
   5.100   1.3672   0.01878   0.01075  -0.1775   0.4907   1.0000
   5.200   1.3758   0.01893   0.01087  -0.1770   0.4861   1.0000
   5.300   1.3865   0.01911   0.01097  -0.1769   0.4819   1.0000
   5.400   1.3955   0.01930   0.01113  -0.1765   0.4775   1.0000
   5.500   1.4019   0.01945   0.01131  -0.1756   0.4727   1.0000
   5.600   1.4097   0.01960   0.01146  -0.1750   0.4681   1.0000
   5.700   1.4191   0.01977   0.01157  -0.1747   0.4639   1.0000
   5.800   1.4305   0.01999   0.01170  -0.1747   0.4598   1.0000
   5.900   1.4358   0.02014   0.01191  -0.1737   0.4553   1.0000
   6.000   1.4427   0.02030   0.01209  -0.1729   0.4507   1.0000
   6.100   1.4509   0.02047   0.01223  -0.1723   0.4465   1.0000
   6.200   1.4615   0.02067   0.01235  -0.1723   0.4426   1.0000
   6.300   1.4695   0.02087   0.01254  -0.1717   0.4384   1.0000
   6.400   1.4751   0.02103   0.01275  -0.1707   0.4340   1.0000
   6.500   1.4821   0.02120   0.01291  -0.1699   0.4297   1.0000
   6.600   1.4905   0.02138   0.01305  -0.1695   0.4257   1.0000
   6.700   1.5023   0.02162   0.01320  -0.1696   0.4218   1.0000
   6.800   1.5072   0.02180   0.01344  -0.1685   0.4178   1.0000
   6.900   1.5128   0.02197   0.01364  -0.1675   0.4136   1.0000
   7.000   1.5194   0.02215   0.01381  -0.1667   0.4095   1.0000
   7.100   1.5276   0.02234   0.01396  -0.1662   0.4057   1.0000
   7.200   1.5397   0.02260   0.01412  -0.1664   0.4019   1.0000
   7.300   1.5424   0.02277   0.01437  -0.1649   0.3980   1.0000
   7.400   1.5471   0.02295   0.01458  -0.1637   0.3940   1.0000
   7.500   1.5532   0.02313   0.01477  -0.1628   0.3902   1.0000
   7.600   1.5609   0.02333   0.01494  -0.1623   0.3866   1.0000
   7.700   1.5736   0.02361   0.01511  -0.1627   0.3828   1.0000
   7.800   1.5756   0.02380   0.01538  -0.1610   0.3792   1.0000
   7.900   1.5796   0.02400   0.01562  -0.1598   0.3753   1.0000
   8.000   1.5850   0.02420   0.01583  -0.1588   0.3716   1.0000
   8.100   1.5917   0.02441   0.01601  -0.1580   0.3681   1.0000
   8.200   1.6025   0.02467   0.01618  -0.1581   0.3645   1.0000
   8.300   1.6075   0.02491   0.01647  -0.1571   0.3610   1.0000
   8.400   1.6107   0.02514   0.01675  -0.1557   0.3573   1.0000
   8.500   1.6153   0.02536   0.01700  -0.1546   0.3537   1.0000
   8.600   1.6210   0.02558   0.01721  -0.1537   0.3502   1.0000
   8.700   1.6293   0.02582   0.01740  -0.1533   0.3468   1.0000
   8.800   1.6385   0.02612   0.01765  -0.1531   0.3433   1.0000
   8.900   1.6406   0.02637   0.01798  -0.1516   0.3399   1.0000
   9.000   1.6442   0.02662   0.01828  -0.1504   0.3364   1.0000
   9.100   1.6490   0.02687   0.01854  -0.1494   0.3329   1.0000
   9.200   1.6549   0.02712   0.01877  -0.1486   0.3297   1.0000
   9.300   1.6649   0.02740   0.01897  -0.1485   0.3263   1.0000
   9.400   1.6696   0.02771   0.01931  -0.1475   0.3230   1.0000
   9.500   1.6718   0.02800   0.01967  -0.1462   0.3197   1.0000
   9.600   1.6755   0.02828   0.02000  -0.1450   0.3163   1.0000
   9.700   1.6801   0.02856   0.02028  -0.1441   0.3131   1.0000
   9.800   1.6862   0.02884   0.02054  -0.1433   0.3100   1.0000
   9.900   1.6975   0.02916   0.02075  -0.1435   0.3066   1.0000
  10.000   1.6991   0.02950   0.02118  -0.1421   0.3037   1.0000
  10.100   1.7011   0.02983   0.02159  -0.1408   0.3005   1.0000
  10.200   1.7044   0.03016   0.02196  -0.1396   0.2973   1.0000
  10.300   1.7085   0.03047   0.02228  -0.1387   0.2942   1.0000
  10.400   1.7141   0.03078   0.02257  -0.1379   0.2913   1.0000
  10.500   1.7250   0.03112   0.02279  -0.1380   0.2879   1.0000
  10.600   1.7267   0.03152   0.02327  -0.1367   0.2852   1.0000
  10.700   1.7280   0.03191   0.02375  -0.1354   0.2822   1.0000
  10.800   1.7306   0.03229   0.02419  -0.1342   0.2792   1.0000
  10.900   1.7341   0.03266   0.02457  -0.1332   0.2762   1.0000
  11.000   1.7384   0.03301   0.02492  -0.1324   0.2734   1.0000
  11.100   1.7467   0.03336   0.02518  -0.1321   0.2704   1.0000
  11.200   1.7524   0.03379   0.02562  -0.1315   0.2675   1.0000
  11.300   1.7526   0.03426   0.02620  -0.1301   0.2648   1.0000
  11.400   1.7542   0.03472   0.02671  -0.1289   0.2620   1.0000
  11.500   1.7568   0.03515   0.02719  -0.1279   0.2591   1.0000
  11.600   1.7601   0.03557   0.02762  -0.1270   0.2564   1.0000
  11.700   1.7651   0.03596   0.02798  -0.1263   0.2538   1.0000
  11.800   1.7771   0.03632   0.02821  -0.1266   0.2505   1.0000
  11.900   1.7755   0.03690   0.02892  -0.1251   0.2483   1.0000
  12.000   1.7756   0.03745   0.02957  -0.1238   0.2457   1.0000
  12.100   1.7769   0.03799   0.03016  -0.1227   0.2431   1.0000
  12.200   1.7791   0.03849   0.03070  -0.1218   0.2405   1.0000
  12.300   1.7821   0.03897   0.03119  -0.1209   0.2380   1.0000
  12.400   1.7872   0.03941   0.03160  -0.1203   0.2354   1.0000
  12.500   1.7984   0.03980   0.03187  -0.1205   0.2323   1.0000
  12.600   1.7961   0.04049   0.03269  -0.1191   0.2302   1.0000
  12.700   1.7953   0.04117   0.03347  -0.1179   0.2279   1.0000
  12.800   1.7959   0.04181   0.03417  -0.1169   0.2255   1.0000
  12.900   1.7975   0.04241   0.03481  -0.1160   0.2231   1.0000
  13.000   1.7998   0.04297   0.03539  -0.1152   0.2207   1.0000
  13.100   1.8033   0.04350   0.03591  -0.1145   0.2184   1.0000
  13.200   1.8134   0.04387   0.03617  -0.1146   0.2156   1.0000
  13.300   1.8144   0.04461   0.03697  -0.1137   0.2134   1.0000
  13.400   1.8123   0.04544   0.03792  -0.1126   0.2114   1.0000
  13.500   1.8114   0.04623   0.03880  -0.1116   0.2092   1.0000
  13.600   1.8117   0.04698   0.03961  -0.1107   0.2070   1.0000
  13.700   1.8130   0.04767   0.04033  -0.1100   0.2048   1.0000
  13.800   1.8152   0.04832   0.04099  -0.1093   0.2027   1.0000
  13.900   1.8194   0.04889   0.04153  -0.1089   0.2005   1.0000
  14.000   1.8322   0.04918   0.04169  -0.1091   0.1976   1.0000
  14.100   1.8277   0.05023   0.04288  -0.1080   0.1960   1.0000
  14.200   1.8248   0.05125   0.04401  -0.1070   0.1942   1.0000
  14.300   1.8230   0.05222   0.04507  -0.1062   0.1923   1.0000
  14.400   1.8225   0.05312   0.04603  -0.1055   0.1902   1.0000
  14.500   1.8231   0.05395   0.04690  -0.1049   0.1882   1.0000
  14.600   1.8247   0.05471   0.04768  -0.1043   0.1863   1.0000
  14.700   1.8278   0.05539   0.04835  -0.1039   0.1844   1.0000
  14.800   1.8387   0.05567   0.04852  -0.1039   0.1818   1.0000
  14.900   1.8387   0.05668   0.04960  -0.1034   0.1800   1.0000
  15.000   1.8341   0.05796   0.05100  -0.1026   0.1785   1.0000
