  
       XFOIL         Version 6.99
  
 Calculated polar for: GA                                              
  
 1 1 Reynolds number fixed          Mach number fixed         
  
 xtrf =   1.000 (top)        1.000 (bottom)  
 Mach =   0.000     Re =     0.150 e 6     Ncrit =   9.000
  
   alpha    CL        CD       CDp       CM     Top_Xtr  Bot_Xtr
  ------ -------- --------- --------- -------- -------- --------
   0.000   0.8457   0.01614   0.00896  -0.1961   0.7525   0.3845
   0.100   0.8597   0.01600   0.00888  -0.1964   0.7494   0.4078
   0.200   0.8746   0.01587   0.00879  -0.1970   0.7467   0.4333
   0.300   0.8863   0.01584   0.00880  -0.1969   0.7431   0.4573
   0.400   0.8937   0.01588   0.00892  -0.1961   0.7380   0.4782
   0.500   0.9047   0.01584   0.00894  -0.1960   0.7338   0.5024
   0.600   0.9173   0.01576   0.00890  -0.1960   0.7303   0.5276
   0.700   0.9311   0.01567   0.00884  -0.1963   0.7273   0.5548
   0.800   0.9435   0.01564   0.00883  -0.1963   0.7241   0.5805
   0.900   0.9499   0.01571   0.00898  -0.1953   0.7189   0.6015
   1.000   0.9596   0.01569   0.00902  -0.1948   0.7146   0.6250
   1.100   0.9711   0.01565   0.00900  -0.1946   0.7108   0.6506
   1.200   0.9836   0.01558   0.00894  -0.1946   0.7076   0.6766
   1.300   0.9953   0.01554   0.00891  -0.1944   0.7044   0.7024
   1.400   1.0010   0.01559   0.00904  -0.1932   0.6994   0.7256
   1.500   1.0093   0.01557   0.00907  -0.1924   0.6950   0.7517
   1.600   1.0185   0.01550   0.00903  -0.1918   0.6912   0.7814
   1.700   1.0277   0.01537   0.00893  -0.1910   0.6880   0.8170
   1.800   1.0352   0.01518   0.00878  -0.1898   0.6851   0.8728
   1.900   1.0413   0.01516   0.00882  -0.1888   0.6799   1.0000
   2.000   1.0525   0.01524   0.00885  -0.1888   0.6753   1.0000
   2.100   1.0653   0.01529   0.00883  -0.1891   0.6713   1.0000
   2.200   1.0791   0.01533   0.00877  -0.1895   0.6679   1.0000
   2.300   1.0925   0.01541   0.00876  -0.1898   0.6644   1.0000
   2.400   1.1004   0.01554   0.00889  -0.1892   0.6593   1.0000
   2.500   1.1108   0.01562   0.00894  -0.1890   0.6548   1.0000
   2.600   1.1229   0.01568   0.00893  -0.1891   0.6508   1.0000
   2.700   1.1361   0.01573   0.00890  -0.1894   0.6474   1.0000
   2.800   1.1477   0.01584   0.00895  -0.1894   0.6435   1.0000
   2.900   1.1558   0.01596   0.00908  -0.1888   0.6386   1.0000
   3.000   1.1661   0.01605   0.00914  -0.1886   0.6341   1.0000
   3.100   1.1778   0.01611   0.00914  -0.1886   0.6302   1.0000
   3.200   1.1909   0.01618   0.00912  -0.1889   0.6268   1.0000
   3.300   1.2008   0.01631   0.00922  -0.1886   0.6226   1.0000
   3.400   1.2092   0.01643   0.00936  -0.1881   0.6178   1.0000
   3.500   1.2195   0.01652   0.00942  -0.1878   0.6134   1.0000
   3.600   1.2311   0.01660   0.00943  -0.1878   0.6095   1.0000
   3.700   1.2443   0.01668   0.00942  -0.1881   0.6061   1.0000
   3.800   1.2525   0.01682   0.00958  -0.1875   0.6016   1.0000
   3.900   1.2611   0.01694   0.00970  -0.1870   0.5969   1.0000
   4.000   1.2713   0.01704   0.00976  -0.1868   0.5926   1.0000
   4.100   1.2829   0.01712   0.00979  -0.1868   0.5889   1.0000
   4.300   1.3028   0.01737   0.01000  -0.1862   0.5806   1.0000
   4.400   1.3116   0.01749   0.01012  -0.1857   0.5759   1.0000
   4.500   1.3218   0.01759   0.01018  -0.1855   0.5718   1.0000
   4.600   1.3334   0.01769   0.01021  -0.1855   0.5681   1.0000
   4.700   1.3450   0.01782   0.01028  -0.1855   0.5643   1.0000
   4.800   1.3518   0.01796   0.01047  -0.1847   0.5595   1.0000
   4.900   1.3607   0.01808   0.01059  -0.1842   0.5550   1.0000
   5.000   1.3709   0.01819   0.01065  -0.1840   0.5509   1.0000
   5.100   1.3827   0.01830   0.01070  -0.1840   0.5473   1.0000
   5.200   1.3923   0.01845   0.01083  -0.1837   0.5432   1.0000
   5.300   1.3994   0.01859   0.01101  -0.1830   0.5384   1.0000
   5.400   1.4083   0.01872   0.01112  -0.1825   0.5340   1.0000
   5.500   1.4185   0.01883   0.01119  -0.1823   0.5300   1.0000
   5.600   1.4309   0.01896   0.01124  -0.1824   0.5264   1.0000
   5.700   1.4381   0.01912   0.01143  -0.1817   0.5220   1.0000
   5.800   1.4455   0.01927   0.01160  -0.1810   0.5173   1.0000
   5.900   1.4544   0.01939   0.01172  -0.1805   0.5130   1.0000
   6.000   1.4647   0.01951   0.01179  -0.1803   0.5091   1.0000
   6.100   1.4768   0.01968   0.01187  -0.1805   0.5054   1.0000
   6.200   1.4823   0.01984   0.01210  -0.1794   0.5007   1.0000
   6.300   1.4898   0.01999   0.01226  -0.1787   0.4962   1.0000
   6.400   1.4986   0.02012   0.01237  -0.1783   0.4920   1.0000
   6.500   1.5094   0.02026   0.01244  -0.1782   0.4881   1.0000
   6.600   1.5188   0.02044   0.01260  -0.1778   0.4841   1.0000
   6.700   1.5246   0.02060   0.01282  -0.1769   0.4795   1.0000
   6.800   1.5321   0.02076   0.01299  -0.1762   0.4750   1.0000
   6.900   1.5409   0.02090   0.01309  -0.1758   0.4710   1.0000
   7.000   1.5525   0.02106   0.01317  -0.1758   0.4672   1.0000
   7.100   1.5587   0.02125   0.01340  -0.1749   0.4629   1.0000
   7.200   1.5647   0.02142   0.01361  -0.1740   0.4583   1.0000
   7.300   1.5721   0.02158   0.01377  -0.1733   0.4540   1.0000
   7.400   1.5812   0.02174   0.01387  -0.1729   0.4500   1.0000
   7.500   1.5923   0.02193   0.01399  -0.1729   0.4461   1.0000
   7.600   1.5962   0.02213   0.01427  -0.1716   0.4417   1.0000
   7.700   1.6021   0.02230   0.01448  -0.1707   0.4372   1.0000
   7.800   1.6094   0.02247   0.01463  -0.1700   0.4330   1.0000
   7.900   1.6191   0.02265   0.01474  -0.1698   0.4291   1.0000
   8.000   1.6267   0.02287   0.01494  -0.1692   0.4251   1.0000
   8.100   1.6307   0.02307   0.01521  -0.1679   0.4206   1.0000
   8.200   1.6364   0.02326   0.01541  -0.1670   0.4163   1.0000
   8.300   1.6435   0.02344   0.01557  -0.1663   0.4123   1.0000
   8.400   1.6542   0.02365   0.01569  -0.1662   0.4084   1.0000
   8.500   1.6579   0.02388   0.01598  -0.1649   0.4042   1.0000
   8.600   1.6612   0.02409   0.01624  -0.1636   0.3999   1.0000
   8.700   1.6658   0.02428   0.01644  -0.1624   0.3958   1.0000
   8.800   1.6726   0.02448   0.01660  -0.1617   0.3919   1.0000
   8.900   1.6828   0.02473   0.01675  -0.1616   0.3880   1.0000
   9.000   1.6832   0.02497   0.01708  -0.1598   0.3840   1.0000
   9.100   1.6858   0.02520   0.01735  -0.1583   0.3799   1.0000
   9.200   1.6899   0.02543   0.01758  -0.1572   0.3759   1.0000
   9.300   1.6968   0.02566   0.01776  -0.1565   0.3720   1.0000
   9.400   1.7045   0.02593   0.01798  -0.1560   0.3681   1.0000
   9.500   1.7051   0.02621   0.01835  -0.1543   0.3641   1.0000
   9.600   1.7076   0.02648   0.01866  -0.1529   0.3601   1.0000
   9.700   1.7115   0.02674   0.01892  -0.1518   0.3562   1.0000
   9.800   1.7184   0.02701   0.01911  -0.1511   0.3524   1.0000
   9.900   1.7241   0.02732   0.01940  -0.1503   0.3485   1.0000
  10.000   1.7248   0.02765   0.01981  -0.1487   0.3446   1.0000
  10.100   1.7270   0.02797   0.02017  -0.1474   0.3405   1.0000
  10.200   1.7307   0.02828   0.02047  -0.1463   0.3367   1.0000
  10.300   1.7375   0.02857   0.02069  -0.1457   0.3330   1.0000
  10.400   1.7413   0.02894   0.02107  -0.1447   0.3292   1.0000
  10.500   1.7420   0.02933   0.02154  -0.1433   0.3253   1.0000
  10.600   1.7440   0.02970   0.02194  -0.1420   0.3213   1.0000
  10.700   1.7474   0.03006   0.02229  -0.1410   0.3176   1.0000
  10.800   1.7540   0.03039   0.02254  -0.1404   0.3139   1.0000
  10.900   1.7563   0.03083   0.02301  -0.1392   0.3102   1.0000
  11.000   1.7568   0.03128   0.02354  -0.1379   0.3064   1.0000
  11.100   1.7586   0.03172   0.02401  -0.1367   0.3025   1.0000
  11.200   1.7617   0.03213   0.02440  -0.1357   0.2989   1.0000
  11.300   1.7679   0.03251   0.02469  -0.1351   0.2952   1.0000
  11.400   1.7691   0.03302   0.02527  -0.1339   0.2917   1.0000
  11.500   1.7694   0.03355   0.02587  -0.1327   0.2879   1.0000
  11.600   1.7708   0.03406   0.02641  -0.1316   0.2842   1.0000
  11.700   1.7734   0.03454   0.02687  -0.1306   0.2807   1.0000
  11.800   1.7790   0.03497   0.02722  -0.1300   0.2771   1.0000
  11.900   1.7799   0.03556   0.02786  -0.1289   0.2737   1.0000
  12.000   1.7798   0.03618   0.02855  -0.1277   0.2700   1.0000
  12.100   1.7806   0.03677   0.02918  -0.1267   0.2665   1.0000
  12.200   1.7827   0.03733   0.02973  -0.1258   0.2631   1.0000
  12.300   1.7874   0.03782   0.03014  -0.1252   0.2596   1.0000
  12.400   1.7888   0.03847   0.03082  -0.1242   0.2562   1.0000
  12.500   1.7882   0.03919   0.03163  -0.1231   0.2528   1.0000
  12.600   1.7886   0.03987   0.03236  -0.1222   0.2493   1.0000
  12.700   1.7899   0.04052   0.03301  -0.1213   0.2461   1.0000
  12.800   1.7934   0.04110   0.03352  -0.1207   0.2428   1.0000
  12.900   1.7959   0.04177   0.03419  -0.1199   0.2396   1.0000
  13.000   1.7948   0.04260   0.03511  -0.1190   0.2363   1.0000
  13.100   1.7946   0.04339   0.03596  -0.1181   0.2330   1.0000
  13.200   1.7951   0.04416   0.03674  -0.1173   0.2299   1.0000
  13.300   1.7974   0.04484   0.03738  -0.1166   0.2268   1.0000
  13.400   1.8019   0.04545   0.03791  -0.1161   0.2236   1.0000
  13.500   1.7997   0.04644   0.03901  -0.1152   0.2206   1.0000
  13.600   1.7988   0.04736   0.04001  -0.1145   0.2175   1.0000
  13.700   1.7988   0.04823   0.04091  -0.1138   0.2145   1.0000
  13.800   1.7998   0.04904   0.04171  -0.1131   0.2116   1.0000
  13.900   1.8037   0.04971   0.04229  -0.1127   0.2086   1.0000
  14.000   1.8038   0.05066   0.04328  -0.1120   0.2057   1.0000
  14.100   1.8021   0.05173   0.04445  -0.1114   0.2029   1.0000
  14.200   1.8013   0.05275   0.04552  -0.1108   0.2000   1.0000
  14.300   1.8012   0.05371   0.04651  -0.1102   0.1973   1.0000
  14.400   1.8029   0.05455   0.04732  -0.1098   0.1946   1.0000
  14.500   1.8083   0.05516   0.04782  -0.1094   0.1915   1.0000
  14.600   1.8050   0.05647   0.04925  -0.1088   0.1892   1.0000
  14.700   1.8033   0.05766   0.05052  -0.1084   0.1865   1.0000
  14.800   1.8025   0.05878   0.05169  -0.1079   0.1839   1.0000
  14.900   1.8024   0.05984   0.05276  -0.1075   0.1814   1.0000
  15.000   1.8043   0.06072   0.05360  -0.1072   0.1789   1.0000
  15.100   1.8091   0.06140   0.05419  -0.1069   0.1761   1.0000
  15.200   1.8057   0.06285   0.05577  -0.1065   0.1739   1.0000
  15.300   1.8035   0.06419   0.05720  -0.1062   0.1715   1.0000
  15.400   1.8026   0.06542   0.05847  -0.1059   0.1691   1.0000
  15.500   1.8025   0.06656   0.05962  -0.1056   0.1668   1.0000
  15.600   1.8041   0.06752   0.06056  -0.1054   0.1645   1.0000
  15.700   1.8106   0.06802   0.06093  -0.1051   0.1618   1.0000
  15.800   1.8063   0.06969   0.06274  -0.1049   0.1600   1.0000
  15.900   1.8036   0.07119   0.06434  -0.1047   0.1578   1.0000
  16.000   1.8020   0.07258   0.06579  -0.1046   0.1556   1.0000
  16.100   1.8016   0.07383   0.06707  -0.1045   0.1535   1.0000
  16.200   1.8024   0.07494   0.06816  -0.1043   0.1515   1.0000
  16.300   1.8070   0.07560   0.06874  -0.1041   0.1493   1.0000
  16.400   1.8081   0.07676   0.06992  -0.1040   0.1472   1.0000
  16.500   1.8040   0.07852   0.07180  -0.1040   0.1455   1.0000
  16.600   1.8016   0.08010   0.07345  -0.1041   0.1436   1.0000
  16.700   1.8005   0.08151   0.07492  -0.1041   0.1416   1.0000
  16.800   1.8004   0.08277   0.07619  -0.1041   0.1398   1.0000
  16.900   1.8019   0.08383   0.07723  -0.1040   0.1380   1.0000
  17.000   1.8101   0.08404   0.07731  -0.1037   0.1357   1.0000
  17.100   1.8067   0.08580   0.07917  -0.1039   0.1342   1.0000
  17.200   1.8025   0.08769   0.08118  -0.1041   0.1326   1.0000
  17.300   1.7996   0.08941   0.08298  -0.1043   0.1310   1.0000
  17.400   1.7983   0.09090   0.08452  -0.1045   0.1293   1.0000
  17.500   1.7986   0.09216   0.08580  -0.1046   0.1276   1.0000
  17.600   1.8005   0.09318   0.08680  -0.1046   0.1260   1.0000
  17.700   1.8068   0.09358   0.08712  -0.1045   0.1242   1.0000
  17.800   1.8082   0.09473   0.08828  -0.1045   0.1225   1.0000
  17.900   1.8028   0.09686   0.09055  -0.1050   0.1213   1.0000
  18.000   1.7990   0.09877   0.09255  -0.1054   0.1199   1.0000
  18.100   1.7964   0.10050   0.09435  -0.1058   0.1185   1.0000
  18.200   1.7956   0.10195   0.09584  -0.1061   0.1170   1.0000
  18.300   1.7969   0.10307   0.09696  -0.1062   0.1156   1.0000
  18.400   1.8008   0.10378   0.09764  -0.1063   0.1141   1.0000
  18.500   1.8142   0.10310   0.09679  -0.1056   0.1121   1.0000
  18.600   1.8069   0.10553   0.09938  -0.1063   0.1112   1.0000
  18.700   1.8008   0.10783   0.10180  -0.1071   0.1102   1.0000
  18.800   1.7962   0.10991   0.10398  -0.1077   0.1090   1.0000
  18.900   1.7932   0.11174   0.10588  -0.1083   0.1078   1.0000
  19.000   1.7919   0.11329   0.10748  -0.1088   0.1066   1.0000
  19.100   1.7929   0.11447   0.10867  -0.1091   0.1053   1.0000
  19.200   1.7972   0.11508   0.10926  -0.1092   0.1040   1.0000
  19.300   1.8070   0.11480   0.10886  -0.1087   0.1025   1.0000
  19.400   1.8090   0.11584   0.10992  -0.1089   0.1013   1.0000
  19.500   1.8017   0.11837   0.11259  -0.1100   0.1005   1.0000
  19.600   1.7952   0.12079   0.11513  -0.1110   0.0996   1.0000
  19.700   1.7900   0.12300   0.11744  -0.1119   0.0987   1.0000
  19.800   1.7865   0.12496   0.11947  -0.1128   0.0977   1.0000
  19.900   1.7846   0.12661   0.12117  -0.1135   0.0967   1.0000
  20.000   1.7854   0.12781   0.12240  -0.1139   0.0956   1.0000
